CM Biconical Antenna
CE 							
'
GW 1 10 0 0 0.0150 0.0375 0.0650 0.1374 0.0015
GW 2 10 0 0 0.0150 0.0750 0.0000 0.1374 0.0015
GW 3 10 0 0 0.0150 0.0375 -0.0650 0.1374 0.0015
GX 1 101
GW 20 1 0 0 -0.0150 0 0 0.0150 0.0015
GE 0							' End of geometry
'
EX 0 20 1 0 1 0					' Voltage source (1+j0) at wire 20 segment 1.
'
FR 0 1 0 0 1000 0					' Set design frequency (1200 MHz).
'
EN							' End of NEC input