CM Turnsti;e Antenna
CE
GW 1 21 -0.375 0 0 0.375 0 0 0.0375
GW 2 21 0 -0.375 0.0375 0 0.375 0.0375 0.0375
GE 0
EX 0 1 11 0 1 0
EX 0 2 11 0 0 1
FR 0 1 0 0 100 0
XQ
EN
