CM Folded Dipole Antenna
CE
GW 1 25 -0.75 0 0 0.75 0 0 0.015
GW 2 5 0.75 0 0 0.75 0.30000000000000004 0 0.015
GW 3 25 0.75 0.30000000000000004 0 -0.75 0.30000000000000004 0 0.015
GW 4 5 -0.75 0.30000000000000004 0 -0.75 0 0 0.015
GE 0
EX 0 1 13 0 1 0
FR 0 1 0 0 100 0
EK
XQ
EN
