CM Folded Dipole Antenna
CE
GW 1 125 -0.75 0 0 0.75 0 0 0.015
GW 2 5 0.75 0 0 0.75 0.06 0 0.015
GW 3 125 0.75 0.06 0 -0.75 0.06 0 0.015
GW 4 5 -0.75 0.06 0 -0.75 0 0 0.015
GE 0
EX 0 1 63 0 1 0
FR 0 1 0 0 100 0
EK
XQ
EN
