CM Folded Dipole Antenna
CE
GW 1 11 -0.75 0 0 0.75 0 0 0.015
GW 2 5 0.75 0 0 0.75 0.6000000000000001 0 0.015
GW 3 11 0.75 0.6000000000000001 0 -0.75 0.6000000000000001 0 0.015
GW 4 5 -0.75 0.6000000000000001 0 -0.75 0 0 0.015
GE 0
EX 0 1 6 0 1 0
FR 0 1 0 0 100 0
EK
XQ
EN
