CM Helical Antenna
CE 							
'
GW   100    1       .0       .0       .0      .05       .0       .0  .001311
GW   101    1      .05       .0       .0       .1       .0       .0  .002932
GW   102    1       .1       .0       .0      .15       .0       .0  .003896
GW   103    1      .15       .0       .0       .2       .0       .0  .004535
GW   104    1       .2       .0       .0      .25       .0       .0   .00499
GW   105    1       .0       .0       .0  .043301     .025       .0  .001311
GW   106    1  .043301     .025       .0  .086603      .05       .0  .002932
GW   107    1  .086603      .05       .0  .129904     .075       .0  .003896
GW   108    1  .129904     .075       .0  .173205       .1       .0  .004535
GW   109    1  .173205       .1       .0  .216506     .125       .0   .00499
GW   110    1       .0       .0       .0     .025  .043301       .0  .001311
GW   111    1     .025  .043301       .0      .05  .086603       .0  .002932
GW   112    1      .05  .086603       .0     .075  .129904       .0  .003896
GW   113    1     .075  .129904       .0       .1  .173205       .0  .004535
GW   114    1       .1  .173205       .0     .125  .216506       .0   .00499
GW   115    1       .0       .0       .0       .0      .05       .0  .001311
GW   116    1       .0      .05       .0       .0       .1       .0  .002932
GW   117    1       .0       .1       .0       .0      .15       .0  .003896
GW   118    1       .0      .15       .0       .0       .2       .0  .004535
GW   119    1       .0       .2       .0       .0      .25       .0   .00499
GW   120    1       .0       .0       .0    -.025  .043301       .0  .001311
GW   121    1    -.025  .043301       .0     -.05  .086603       .0  .002932
GW   122    1     -.05  .086603       .0    -.075  .129904       .0  .003896
GW   123    1    -.075  .129904       .0      -.1  .173205       .0  .004535
GW   124    1      -.1  .173205       .0    -.125  .216506       .0   .00499
GW   125    1       .0       .0       .0 -.043301     .025       .0  .001311
GW   126    1 -.043301     .025       .0 -.086603      .05       .0  .002932
GW   127    1 -.086603      .05       .0 -.129904     .075       .0  .003896
GW   128    1 -.129904     .075       .0 -.173205       .1       .0  .004535
GW   129    1 -.173205       .1       .0 -.216506     .125       .0   .00499
GW   130    1       .0       .0       .0     -.05       .0       .0  .001311
GW   131    1     -.05       .0       .0      -.1       .0       .0  .002932
GW   132    1      -.1       .0       .0     -.15       .0       .0  .003896
GW   133    1     -.15       .0       .0      -.2       .0       .0  .004535
GW   134    1      -.2       .0       .0     -.25       .0       .0   .00499
GW   135    1       .0       .0       .0 -.043301    -.025       .0  .001311
GW   136    1 -.043301    -.025       .0 -.086603     -.05       .0  .002932
GW   137    1 -.086603     -.05       .0 -.129904    -.075       .0  .003896
GW   138    1 -.129904    -.075       .0 -.173205      -.1       .0  .004535
GW   139    1 -.173205      -.1       .0 -.216506    -.125       .0   .00499
GW   140    1       .0       .0       .0    -.025 -.043301       .0  .001311
GW   141    1    -.025 -.043301       .0     -.05 -.086603       .0  .002932
GW   142    1     -.05 -.086603       .0    -.075 -.129904       .0  .003896
GW   143    1    -.075 -.129904       .0      -.1 -.173205       .0  .004535
GW   144    1      -.1 -.173205       .0    -.125 -.216506       .0   .00499
GW   145    1       .0       .0       .0       .0     -.05       .0  .001311
GW   146    1       .0     -.05       .0       .0      -.1       .0  .002932
GW   147    1       .0      -.1       .0       .0     -.15       .0  .003896
GW   148    1       .0     -.15       .0       .0      -.2       .0  .004535
GW   149    1       .0      -.2       .0       .0     -.25       .0   .00499
GW   150    1       .0       .0       .0     .025 -.043301       .0  .001311
GW   151    1     .025 -.043301       .0      .05 -.086603       .0  .002932
GW   152    1      .05 -.086603       .0     .075 -.129904       .0  .003896
GW   153    1     .075 -.129904       .0       .1 -.173205       .0  .004535
GW   154    1       .1 -.173205       .0     .125 -.216506       .0   .00499
GW   155    1       .0       .0       .0  .043301    -.025       .0  .001311
GW   156    1  .043301    -.025       .0  .086603     -.05       .0  .002932
GW   157    1  .086603     -.05       .0  .129904    -.075       .0  .003896
GW   158    1  .129904    -.075       .0  .173205      -.1       .0  .004535
GW   159    1  .173205      -.1       .0  .216506    -.125       .0   .00499
GW   160    1      .05       .0       .0  .043301     .025       .0  .001311
GW   161    1  .043301     .025       .0     .025  .043301       .0  .001311
GW   162    1     .025  .043301       .0       .0      .05       .0  .001311
GW   163    1       .0      .05       .0    -.025  .043301       .0  .001311
GW   164    1    -.025  .043301       .0 -.043301     .025       .0  .001311
GW   165    1 -.043301     .025       .0     -.05       .0       .0  .001311
GW   166    1     -.05       .0       .0 -.043301    -.025       .0  .001311
GW   167    1 -.043301    -.025       .0    -.025 -.043301       .0  .001311
GW   168    1    -.025 -.043301       .0       .0     -.05       .0  .001311
GW   169    1       .0     -.05       .0     .025 -.043301       .0  .001311
GW   170    1     .025 -.043301       .0  .043301    -.025       .0  .001311
GW   171    1  .043301    -.025       .0      .05       .0       .0  .001311
GW   172    1       .1       .0       .0  .086603      .05       .0  .002932
GW   173    1  .086603      .05       .0      .05  .086603       .0  .002932
GW   174    1      .05  .086603       .0       .0       .1       .0  .002932
GW   175    1       .0       .1       .0     -.05  .086603       .0  .002932
GW   176    1     -.05  .086603       .0 -.086603      .05       .0  .002932
GW   177    1 -.086603      .05       .0      -.1       .0       .0  .002932
GW   178    1      -.1       .0       .0 -.086603     -.05       .0  .002932
GW   179    1 -.086603     -.05       .0     -.05 -.086603       .0  .002932
GW   180    1     -.05 -.086603       .0       .0      -.1       .0  .002932
GW   181    1       .0      -.1       .0      .05 -.086603       .0  .002932
GW   182    1      .05 -.086603       .0  .086603     -.05       .0  .002932
GW   183    1  .086603     -.05       .0       .1       .0       .0  .002932
GW   184    1      .15       .0       .0  .129904     .075       .0  .003896
GW   185    1  .129904     .075       .0     .075  .129904       .0  .003896
GW   186    1     .075  .129904       .0       .0      .15       .0  .003896
GW   187    1       .0      .15       .0    -.075  .129904       .0  .003896
GW   188    1    -.075  .129904       .0 -.129904     .075       .0  .003896
GW   189    1 -.129904     .075       .0     -.15       .0       .0  .003896
GW   190    1     -.15       .0       .0 -.129904    -.075       .0  .003896
GW   191    1 -.129904    -.075       .0    -.075 -.129904       .0  .003896
GW   192    1    -.075 -.129904       .0       .0     -.15       .0  .003896
GW   193    1       .0     -.15       .0     .075 -.129904       .0  .003896
GW   194    1     .075 -.129904       .0  .129904    -.075       .0  .003896
GW   195    1  .129904    -.075       .0      .15       .0       .0  .003896
GW   196    1       .2       .0       .0  .173205       .1       .0  .004535
GW   197    1  .173205       .1       .0       .1  .173205       .0  .004535
GW   198    1       .1  .173205       .0       .0       .2       .0  .004535
GW   199    1       .0       .2       .0      -.1  .173205       .0  .004535
GW   200    1      -.1  .173205       .0 -.173205       .1       .0  .004535
GW   201    1 -.173205       .1       .0      -.2       .0       .0  .004535
GW   202    1      -.2       .0       .0 -.173205      -.1       .0  .004535
GW   203    1 -.173205      -.1       .0      -.1 -.173205       .0  .004535
GW   204    1      -.1 -.173205       .0       .0      -.2       .0  .004535
GW   205    1       .0      -.2       .0       .1 -.173205       .0  .004535
GW   206    1       .1 -.173205       .0  .173205      -.1       .0  .004535
GW   207    1  .173205      -.1       .0       .2       .0       .0  .004535
GW   208    1      .25       .0       .0  .216506     .125       .0   .00499
GW   209    1  .216506     .125       .0     .125  .216506       .0   .00499
GW   210    1     .125  .216506       .0       .0      .25       .0   .00499
GW   211    1       .0      .25       .0    -.125  .216506       .0   .00499
GW   212    1    -.125  .216506       .0 -.216506     .125       .0   .00499
GW   213    1 -.216506     .125       .0     -.25       .0       .0   .00499
GW   214    1     -.25       .0       .0 -.216506    -.125       .0   .00499
GW   215    1 -.216506    -.125       .0    -.125 -.216506       .0   .00499
GW   216    1    -.125 -.216506       .0       .0     -.25       .0   .00499
GW   217    1       .0     -.25       .0     .125 -.216506       .0   .00499
GW   218    1     .125 -.216506       .0  .216506    -.125       .0   .00499
GW   219    1  .216506    -.125       .0      .25       .0       .0   .00499
GH     1  200   0.1250   1.8750   0.0796   0.0796   0.0796   0.0796   0.0050
GW   300    1       .1       .0       .0      .0796       5.8E-7       2.3E-6  .001311   'Add Feedline

GE 0							' End of geometry
'
EX 0 300 1 0 1 0					' Voltage source (1+j0) at wire 20 segment 1.
'
FR 0 1 0 0 600 0					' Set design frequency (1200 MHz).
'
EN							' End of NEC input