CM Dipole Antenna
CE
GW 1 21 -4.5 0 -0.75 -4.5 0 0.75 0.03
GW 2 21 4.5 0 -0.75 4.5 0 0.75 0.03
GE 0
EX 0 1 5 0 1 0
FR 0 1 0 0 100 0
XQ
EN
