CM 144 MHz Stacked Turnstile Antenna NEC model by Carol F. Milazzo, KP4MD
CM Horizontal orientation
CM Frequency = 145.000 MHz
CM 21 segments per dipole
CM Simulated good ground
CM http://www.qsl.net/kp4md/omnihoriz.htm
CE
SY frq=145	'Input frequency MHz
SY len=39.815	'Input dipole length inches
SY dia=0.25	'Input dipole dia. inches
SY rad=0.5*dia	'Calculate dipole radius
SY n=21	'Input segments per dipole (must be odd)
SY nc=0.5*(n+1)	'Calculate feed point segment
SY h=0.87	'Input height inches to 0.5 lambda
SY s=0.25	'Input separation between each dipole in pair inches
GW	1	n	0	-len/2	h	0	len/2	h	rad	'First dipole at 0.5 lambda
GM	1	1	0	0	90	0	0	s	1	'Rotate to form second dipole at right angle
GS	0	0	0.0254

GW   100    5      -.2      -.2     18.0      -.2 -.176471     18.0  .001553
GW   101    5      -.2 -.176471     18.0      -.2 -.152941     18.0  .001553
GW   102    5      -.2 -.152941     18.0      -.2 -.129412     18.0  .001553
GW   103    5      -.2 -.129412     18.0      -.2 -.105882     18.0  .001553
GW   104    5      -.2 -.105882     18.0      -.2 -.082353     18.0  .001553
GW   105    5      -.2 -.082353     18.0      -.2 -.058824     18.0  .001553
GW   106    5      -.2 -.058824     18.0      -.2 -.035294     18.0  .001553
GW   107    5      -.2 -.035294     18.0      -.2 -.011765     18.0  .001553
GW   108    5      -.2 -.011765     18.0      -.2  .011765     18.0  .001553
GW   109    5      -.2  .011765     18.0      -.2  .035294     18.0  .001553
GW   110    5      -.2  .035294     18.0      -.2  .058824     18.0  .001553
GW   111    5      -.2  .058824     18.0      -.2  .082353     18.0  .001553
GW   112    5      -.2  .082353     18.0      -.2  .105882     18.0  .001553
GW   113    5      -.2  .105882     18.0      -.2  .129412     18.0  .001553
GW   114    5      -.2  .129412     18.0      -.2  .152941     18.0  .001553
GW   115    5      -.2  .152941     18.0      -.2  .176471     18.0  .001553
GW   116    5      -.2  .176471     18.0      -.2       .2     18.0  .001553
GW   117    5 -.183333      -.2     18.0 -.183333 -.176471     18.0  .001553
GW   118    5 -.183333 -.176471     18.0 -.183333 -.152941     18.0  .001553
GW   119    5 -.183333 -.152941     18.0 -.183333 -.129412     18.0  .001553
GW   120    5 -.183333 -.129412     18.0 -.183333 -.105882     18.0  .001553
GW   121    5 -.183333 -.105882     18.0 -.183333 -.082353     18.0  .001553
GW   122    5 -.183333 -.082353     18.0 -.183333 -.058824     18.0  .001553
GW   123    5 -.183333 -.058824     18.0 -.183333 -.035294     18.0  .001553
GW   124    5 -.183333 -.035294     18.0 -.183333 -.011765     18.0  .001553
GW   125    5 -.183333 -.011765     18.0 -.183333  .011765     18.0  .001553
GW   126    5 -.183333  .011765     18.0 -.183333  .035294     18.0  .001553
GW   127    5 -.183333  .035294     18.0 -.183333  .058824     18.0  .001553
GW   128    5 -.183333  .058824     18.0 -.183333  .082353     18.0  .001553
GW   129    5 -.183333  .082353     18.0 -.183333  .105882     18.0  .001553
GW   130    5 -.183333  .105882     18.0 -.183333  .129412     18.0  .001553
GW   131    5 -.183333  .129412     18.0 -.183333  .152941     18.0  .001553
GW   132    5 -.183333  .152941     18.0 -.183333  .176471     18.0  .001553
GW   133    5 -.183333  .176471     18.0 -.183333       .2     18.0  .001553
GW   134    5 -.166667      -.2     18.0 -.166667 -.176471     18.0  .001553
GW   135    5 -.166667 -.176471     18.0 -.166667 -.152941     18.0  .001553
GW   136    5 -.166667 -.152941     18.0 -.166667 -.129412     18.0  .001553
GW   137    5 -.166667 -.129412     18.0 -.166667 -.105882     18.0  .001553
GW   138    5 -.166667 -.105882     18.0 -.166667 -.082353     18.0  .001553
GW   139    5 -.166667 -.082353     18.0 -.166667 -.058824     18.0  .001553
GW   140    5 -.166667 -.058824     18.0 -.166667 -.035294     18.0  .001553
GW   141    5 -.166667 -.035294     18.0 -.166667 -.011765     18.0  .001553
GW   142    5 -.166667 -.011765     18.0 -.166667  .011765     18.0  .001553
GW   143    5 -.166667  .011765     18.0 -.166667  .035294     18.0  .001553
GW   144    5 -.166667  .035294     18.0 -.166667  .058824     18.0  .001553
GW   145    5 -.166667  .058824     18.0 -.166667  .082353     18.0  .001553
GW   146    5 -.166667  .082353     18.0 -.166667  .105882     18.0  .001553
GW   147    5 -.166667  .105882     18.0 -.166667  .129412     18.0  .001553
GW   148    5 -.166667  .129412     18.0 -.166667  .152941     18.0  .001553
GW   149    5 -.166667  .152941     18.0 -.166667  .176471     18.0  .001553
GW   150    5 -.166667  .176471     18.0 -.166667       .2     18.0  .001553
GW   151    5     -.15      -.2     18.0     -.15 -.176471     18.0  .001553
GW   152    5     -.15 -.176471     18.0     -.15 -.152941     18.0  .001553
GW   153    5     -.15 -.152941     18.0     -.15 -.129412     18.0  .001553
GW   154    5     -.15 -.129412     18.0     -.15 -.105882     18.0  .001553
GW   155    5     -.15 -.105882     18.0     -.15 -.082353     18.0  .001553
GW   156    5     -.15 -.082353     18.0     -.15 -.058824     18.0  .001553
GW   157    5     -.15 -.058824     18.0     -.15 -.035294     18.0  .001553
GW   158    5     -.15 -.035294     18.0     -.15 -.011765     18.0  .001553
GW   159    5     -.15 -.011765     18.0     -.15  .011765     18.0  .001553
GW   160    5     -.15  .011765     18.0     -.15  .035294     18.0  .001553
GW   161    5     -.15  .035294     18.0     -.15  .058824     18.0  .001553
GW   162    5     -.15  .058824     18.0     -.15  .082353     18.0  .001553
GW   163    5     -.15  .082353     18.0     -.15  .105882     18.0  .001553
GW   164    5     -.15  .105882     18.0     -.15  .129412     18.0  .001553
GW   165    5     -.15  .129412     18.0     -.15  .152941     18.0  .001553
GW   166    5     -.15  .152941     18.0     -.15  .176471     18.0  .001553
GW   167    5     -.15  .176471     18.0     -.15       .2     18.0  .001553
GW   168    5 -.133333      -.2     18.0 -.133333 -.176471     18.0  .001553
GW   169    5 -.133333 -.176471     18.0 -.133333 -.152941     18.0  .001553
GW   170    5 -.133333 -.152941     18.0 -.133333 -.129412     18.0  .001553
GW   171    5 -.133333 -.129412     18.0 -.133333 -.105882     18.0  .001553
GW   172    5 -.133333 -.105882     18.0 -.133333 -.082353     18.0  .001553
GW   173    5 -.133333 -.082353     18.0 -.133333 -.058824     18.0  .001553
GW   174    5 -.133333 -.058824     18.0 -.133333 -.035294     18.0  .001553
GW   175    5 -.133333 -.035294     18.0 -.133333 -.011765     18.0  .001553
GW   176    5 -.133333 -.011765     18.0 -.133333  .011765     18.0  .001553
GW   177    5 -.133333  .011765     18.0 -.133333  .035294     18.0  .001553
GW   178    5 -.133333  .035294     18.0 -.133333  .058824     18.0  .001553
GW   179    5 -.133333  .058824     18.0 -.133333  .082353     18.0  .001553
GW   180    5 -.133333  .082353     18.0 -.133333  .105882     18.0  .001553
GW   181    5 -.133333  .105882     18.0 -.133333  .129412     18.0  .001553
GW   182    5 -.133333  .129412     18.0 -.133333  .152941     18.0  .001553
GW   183    5 -.133333  .152941     18.0 -.133333  .176471     18.0  .001553
GW   184    5 -.133333  .176471     18.0 -.133333       .2     18.0  .001553
GW   185    5 -.116667      -.2     18.0 -.116667 -.176471     18.0  .001553
GW   186    5 -.116667 -.176471     18.0 -.116667 -.152941     18.0  .001553
GW   187    5 -.116667 -.152941     18.0 -.116667 -.129412     18.0  .001553
GW   188    5 -.116667 -.129412     18.0 -.116667 -.105882     18.0  .001553
GW   189    5 -.116667 -.105882     18.0 -.116667 -.082353     18.0  .001553
GW   190    5 -.116667 -.082353     18.0 -.116667 -.058824     18.0  .001553
GW   191    5 -.116667 -.058824     18.0 -.116667 -.035294     18.0  .001553
GW   192    5 -.116667 -.035294     18.0 -.116667 -.011765     18.0  .001553
GW   193    5 -.116667 -.011765     18.0 -.116667  .011765     18.0  .001553
GW   194    5 -.116667  .011765     18.0 -.116667  .035294     18.0  .001553
GW   195    5 -.116667  .035294     18.0 -.116667  .058824     18.0  .001553
GW   196    5 -.116667  .058824     18.0 -.116667  .082353     18.0  .001553
GW   197    5 -.116667  .082353     18.0 -.116667  .105882     18.0  .001553
GW   198    5 -.116667  .105882     18.0 -.116667  .129412     18.0  .001553
GW   199    5 -.116667  .129412     18.0 -.116667  .152941     18.0  .001553
GW   200    5 -.116667  .152941     18.0 -.116667  .176471     18.0  .001553
GW   201    5 -.116667  .176471     18.0 -.116667       .2     18.0  .001553
GW   202    5      -.1      -.2     18.0      -.1 -.176471     18.0  .001553
GW   203    5      -.1 -.176471     18.0      -.1 -.152941     18.0  .001553
GW   204    5      -.1 -.152941     18.0      -.1 -.129412     18.0  .001553
GW   205    5      -.1 -.129412     18.0      -.1 -.105882     18.0  .001553
GW   206    5      -.1 -.105882     18.0      -.1 -.082353     18.0  .001553
GW   207    5      -.1 -.082353     18.0      -.1 -.058824     18.0  .001553
GW   208    5      -.1 -.058824     18.0      -.1 -.035294     18.0  .001553
GW   209    5      -.1 -.035294     18.0      -.1 -.011765     18.0  .001553
GW   210    5      -.1 -.011765     18.0      -.1  .011765     18.0  .001553
GW   211    5      -.1  .011765     18.0      -.1  .035294     18.0  .001553
GW   212    5      -.1  .035294     18.0      -.1  .058824     18.0  .001553
GW   213    5      -.1  .058824     18.0      -.1  .082353     18.0  .001553
GW   214    5      -.1  .082353     18.0      -.1  .105882     18.0  .001553
GW   215    5      -.1  .105882     18.0      -.1  .129412     18.0  .001553
GW   216    5      -.1  .129412     18.0      -.1  .152941     18.0  .001553
GW   217    5      -.1  .152941     18.0      -.1  .176471     18.0  .001553
GW   218    5      -.1  .176471     18.0      -.1       .2     18.0  .001553
GW   219    5 -.083333      -.2     18.0 -.083333 -.176471     18.0  .001553
GW   220    5 -.083333 -.176471     18.0 -.083333 -.152941     18.0  .001553
GW   221    5 -.083333 -.152941     18.0 -.083333 -.129412     18.0  .001553
GW   222    5 -.083333 -.129412     18.0 -.083333 -.105882     18.0  .001553
GW   223    5 -.083333 -.105882     18.0 -.083333 -.082353     18.0  .001553
GW   224    5 -.083333 -.082353     18.0 -.083333 -.058824     18.0  .001553
GW   225    5 -.083333 -.058824     18.0 -.083333 -.035294     18.0  .001553
GW   226    5 -.083333 -.035294     18.0 -.083333 -.011765     18.0  .001553
GW   227    5 -.083333 -.011765     18.0 -.083333  .011765     18.0  .001553
GW   228    5 -.083333  .011765     18.0 -.083333  .035294     18.0  .001553
GW   229    5 -.083333  .035294     18.0 -.083333  .058824     18.0  .001553
GW   230    5 -.083333  .058824     18.0 -.083333  .082353     18.0  .001553
GW   231    5 -.083333  .082353     18.0 -.083333  .105882     18.0  .001553
GW   232    5 -.083333  .105882     18.0 -.083333  .129412     18.0  .001553
GW   233    5 -.083333  .129412     18.0 -.083333  .152941     18.0  .001553
GW   234    5 -.083333  .152941     18.0 -.083333  .176471     18.0  .001553
GW   235    5 -.083333  .176471     18.0 -.083333       .2     18.0  .001553
GW   236    5 -.066667      -.2     18.0 -.066667 -.176471     18.0  .001553
GW   237    5 -.066667 -.176471     18.0 -.066667 -.152941     18.0  .001553
GW   238    5 -.066667 -.152941     18.0 -.066667 -.129412     18.0  .001553
GW   239    5 -.066667 -.129412     18.0 -.066667 -.105882     18.0  .001553
GW   240    5 -.066667 -.105882     18.0 -.066667 -.082353     18.0  .001553
GW   241    5 -.066667 -.082353     18.0 -.066667 -.058824     18.0  .001553
GW   242    5 -.066667 -.058824     18.0 -.066667 -.035294     18.0  .001553
GW   243    5 -.066667 -.035294     18.0 -.066667 -.011765     18.0  .001553
GW   244    5 -.066667 -.011765     18.0 -.066667  .011765     18.0  .001553
GW   245    5 -.066667  .011765     18.0 -.066667  .035294     18.0  .001553
GW   246    5 -.066667  .035294     18.0 -.066667  .058824     18.0  .001553
GW   247    5 -.066667  .058824     18.0 -.066667  .082353     18.0  .001553
GW   248    5 -.066667  .082353     18.0 -.066667  .105882     18.0  .001553
GW   249    5 -.066667  .105882     18.0 -.066667  .129412     18.0  .001553
GW   250    5 -.066667  .129412     18.0 -.066667  .152941     18.0  .001553
GW   251    5 -.066667  .152941     18.0 -.066667  .176471     18.0  .001553
GW   252    5 -.066667  .176471     18.0 -.066667       .2     18.0  .001553
GW   253    5     -.05      -.2     18.0     -.05 -.176471     18.0  .001553
GW   254    5     -.05 -.176471     18.0     -.05 -.152941     18.0  .001553
GW   255    5     -.05 -.152941     18.0     -.05 -.129412     18.0  .001553
GW   256    5     -.05 -.129412     18.0     -.05 -.105882     18.0  .001553
GW   257    5     -.05 -.105882     18.0     -.05 -.082353     18.0  .001553
GW   258    5     -.05 -.082353     18.0     -.05 -.058824     18.0  .001553
GW   259    5     -.05 -.058824     18.0     -.05 -.035294     18.0  .001553
GW   260    5     -.05 -.035294     18.0     -.05 -.011765     18.0  .001553
GW   261    5     -.05 -.011765     18.0     -.05  .011765     18.0  .001553
GW   262    5     -.05  .011765     18.0     -.05  .035294     18.0  .001553
GW   263    5     -.05  .035294     18.0     -.05  .058824     18.0  .001553
GW   264    5     -.05  .058824     18.0     -.05  .082353     18.0  .001553
GW   265    5     -.05  .082353     18.0     -.05  .105882     18.0  .001553
GW   266    5     -.05  .105882     18.0     -.05  .129412     18.0  .001553
GW   267    5     -.05  .129412     18.0     -.05  .152941     18.0  .001553
GW   268    5     -.05  .152941     18.0     -.05  .176471     18.0  .001553
GW   269    5     -.05  .176471     18.0     -.05       .2     18.0  .001553
GW   270    5 -.033333      -.2     18.0 -.033333 -.176471     18.0  .001553
GW   271    5 -.033333 -.176471     18.0 -.033333 -.152941     18.0  .001553
GW   272    5 -.033333 -.152941     18.0 -.033333 -.129412     18.0  .001553
GW   273    5 -.033333 -.129412     18.0 -.033333 -.105882     18.0  .001553
GW   274    5 -.033333 -.105882     18.0 -.033333 -.082353     18.0  .001553
GW   275    5 -.033333 -.082353     18.0 -.033333 -.058824     18.0  .001553
GW   276    5 -.033333 -.058824     18.0 -.033333 -.035294     18.0  .001553
GW   277    5 -.033333 -.035294     18.0 -.033333 -.011765     18.0  .001553
GW   278    5 -.033333 -.011765     18.0 -.033333  .011765     18.0  .001553
GW   279    5 -.033333  .011765     18.0 -.033333  .035294     18.0  .001553
GW   280    5 -.033333  .035294     18.0 -.033333  .058824     18.0  .001553
GW   281    5 -.033333  .058824     18.0 -.033333  .082353     18.0  .001553
GW   282    5 -.033333  .082353     18.0 -.033333  .105882     18.0  .001553
GW   283    5 -.033333  .105882     18.0 -.033333  .129412     18.0  .001553
GW   284    5 -.033333  .129412     18.0 -.033333  .152941     18.0  .001553
GW   285    5 -.033333  .152941     18.0 -.033333  .176471     18.0  .001553
GW   286    5 -.033333  .176471     18.0 -.033333       .2     18.0  .001553
GW   287    5 -.016667      -.2     18.0 -.016667 -.176471     18.0  .001553
GW   288    5 -.016667 -.176471     18.0 -.016667 -.152941     18.0  .001553
GW   289    5 -.016667 -.152941     18.0 -.016667 -.129412     18.0  .001553
GW   290    5 -.016667 -.129412     18.0 -.016667 -.105882     18.0  .001553
GW   291    5 -.016667 -.105882     18.0 -.016667 -.082353     18.0  .001553
GW   292    5 -.016667 -.082353     18.0 -.016667 -.058824     18.0  .001553
GW   293    5 -.016667 -.058824     18.0 -.016667 -.035294     18.0  .001553
GW   294    5 -.016667 -.035294     18.0 -.016667 -.011765     18.0  .001553
GW   295    5 -.016667 -.011765     18.0 -.016667  .011765     18.0  .001553
GW   296    5 -.016667  .011765     18.0 -.016667  .035294     18.0  .001553
GW   297    5 -.016667  .035294     18.0 -.016667  .058824     18.0  .001553
GW   298    5 -.016667  .058824     18.0 -.016667  .082353     18.0  .001553
GW   299    5 -.016667  .082353     18.0 -.016667  .105882     18.0  .001553
GW   300    5 -.016667  .105882     18.0 -.016667  .129412     18.0  .001553
GW   301    5 -.016667  .129412     18.0 -.016667  .152941     18.0  .001553
GW   302    5 -.016667  .152941     18.0 -.016667  .176471     18.0  .001553
GW   303    5 -.016667  .176471     18.0 -.016667       .2     18.0  .001553
GW   304    5       .0      -.2     18.0       .0 -.176471     18.0  .001553
GW   305    5       .0 -.176471     18.0       .0 -.152941     18.0  .001553
GW   306    5       .0 -.152941     18.0       .0 -.129412     18.0  .001553
GW   307    5       .0 -.129412     18.0       .0 -.105882     18.0  .001553
GW   308    5       .0 -.105882     18.0       .0 -.082353     18.0  .001553
GW   309    5       .0 -.082353     18.0       .0 -.058824     18.0  .001553
GW   310    5       .0 -.058824     18.0       .0 -.035294     18.0  .001553
GW   311    5       .0 -.035294     18.0       .0 -.011765     18.0  .001553
GW   312    5       .0 -.011765     18.0       .0  .011765     18.0  .001553
GW   313    5       .0  .011765     18.0       .0  .035294     18.0  .001553
GW   314    5       .0  .035294     18.0       .0  .058824     18.0  .001553
GW   315    5       .0  .058824     18.0       .0  .082353     18.0  .001553
GW   316    5       .0  .082353     18.0       .0  .105882     18.0  .001553
GW   317    5       .0  .105882     18.0       .0  .129412     18.0  .001553
GW   318    5       .0  .129412     18.0       .0  .152941     18.0  .001553
GW   319    5       .0  .152941     18.0       .0  .176471     18.0  .001553
GW   320    5       .0  .176471     18.0       .0       .2     18.0  .001553
GW   321    5  .016667      -.2     18.0  .016667 -.176471     18.0  .001553
GW   322    5  .016667 -.176471     18.0  .016667 -.152941     18.0  .001553
GW   323    5  .016667 -.152941     18.0  .016667 -.129412     18.0  .001553
GW   324    5  .016667 -.129412     18.0  .016667 -.105882     18.0  .001553
GW   325    5  .016667 -.105882     18.0  .016667 -.082353     18.0  .001553
GW   326    5  .016667 -.082353     18.0  .016667 -.058824     18.0  .001553
GW   327    5  .016667 -.058824     18.0  .016667 -.035294     18.0  .001553
GW   328    5  .016667 -.035294     18.0  .016667 -.011765     18.0  .001553
GW   329    5  .016667 -.011765     18.0  .016667  .011765     18.0  .001553
GW   330    5  .016667  .011765     18.0  .016667  .035294     18.0  .001553
GW   331    5  .016667  .035294     18.0  .016667  .058824     18.0  .001553
GW   332    5  .016667  .058824     18.0  .016667  .082353     18.0  .001553
GW   333    5  .016667  .082353     18.0  .016667  .105882     18.0  .001553
GW   334    5  .016667  .105882     18.0  .016667  .129412     18.0  .001553
GW   335    5  .016667  .129412     18.0  .016667  .152941     18.0  .001553
GW   336    5  .016667  .152941     18.0  .016667  .176471     18.0  .001553
GW   337    5  .016667  .176471     18.0  .016667       .2     18.0  .001553
GW   338    5  .033333      -.2     18.0  .033333 -.176471     18.0  .001553
GW   339    5  .033333 -.176471     18.0  .033333 -.152941     18.0  .001553
GW   340    5  .033333 -.152941     18.0  .033333 -.129412     18.0  .001553
GW   341    5  .033333 -.129412     18.0  .033333 -.105882     18.0  .001553
GW   342    5  .033333 -.105882     18.0  .033333 -.082353     18.0  .001553
GW   343    5  .033333 -.082353     18.0  .033333 -.058824     18.0  .001553
GW   344    5  .033333 -.058824     18.0  .033333 -.035294     18.0  .001553
GW   345    5  .033333 -.035294     18.0  .033333 -.011765     18.0  .001553
GW   346    5  .033333 -.011765     18.0  .033333  .011765     18.0  .001553
GW   347    5  .033333  .011765     18.0  .033333  .035294     18.0  .001553
GW   348    5  .033333  .035294     18.0  .033333  .058824     18.0  .001553
GW   349    5  .033333  .058824     18.0  .033333  .082353     18.0  .001553
GW   350    5  .033333  .082353     18.0  .033333  .105882     18.0  .001553
GW   351    5  .033333  .105882     18.0  .033333  .129412     18.0  .001553
GW   352    5  .033333  .129412     18.0  .033333  .152941     18.0  .001553
GW   353    5  .033333  .152941     18.0  .033333  .176471     18.0  .001553
GW   354    5  .033333  .176471     18.0  .033333       .2     18.0  .001553
GW   355    5      .05      -.2     18.0      .05 -.176471     18.0  .001553
GW   356    5      .05 -.176471     18.0      .05 -.152941     18.0  .001553
GW   357    5      .05 -.152941     18.0      .05 -.129412     18.0  .001553
GW   358    5      .05 -.129412     18.0      .05 -.105882     18.0  .001553
GW   359    5      .05 -.105882     18.0      .05 -.082353     18.0  .001553
GW   360    5      .05 -.082353     18.0      .05 -.058824     18.0  .001553
GW   361    5      .05 -.058824     18.0      .05 -.035294     18.0  .001553
GW   362    5      .05 -.035294     18.0      .05 -.011765     18.0  .001553
GW   363    5      .05 -.011765     18.0      .05  .011765     18.0  .001553
GW   364    5      .05  .011765     18.0      .05  .035294     18.0  .001553
GW   365    5      .05  .035294     18.0      .05  .058824     18.0  .001553
GW   366    5      .05  .058824     18.0      .05  .082353     18.0  .001553
GW   367    5      .05  .082353     18.0      .05  .105882     18.0  .001553
GW   368    5      .05  .105882     18.0      .05  .129412     18.0  .001553
GW   369    5      .05  .129412     18.0      .05  .152941     18.0  .001553
GW   370    5      .05  .152941     18.0      .05  .176471     18.0  .001553
GW   371    5      .05  .176471     18.0      .05       .2     18.0  .001553
GW   372    5  .066667      -.2     18.0  .066667 -.176471     18.0  .001553
GW   373    5  .066667 -.176471     18.0  .066667 -.152941     18.0  .001553
GW   374    5  .066667 -.152941     18.0  .066667 -.129412     18.0  .001553
GW   375    5  .066667 -.129412     18.0  .066667 -.105882     18.0  .001553
GW   376    5  .066667 -.105882     18.0  .066667 -.082353     18.0  .001553
GW   377    5  .066667 -.082353     18.0  .066667 -.058824     18.0  .001553
GW   378    5  .066667 -.058824     18.0  .066667 -.035294     18.0  .001553
GW   379    5  .066667 -.035294     18.0  .066667 -.011765     18.0  .001553
GW   380    5  .066667 -.011765     18.0  .066667  .011765     18.0  .001553
GW   381    5  .066667  .011765     18.0  .066667  .035294     18.0  .001553
GW   382    5  .066667  .035294     18.0  .066667  .058824     18.0  .001553
GW   383    5  .066667  .058824     18.0  .066667  .082353     18.0  .001553
GW   384    5  .066667  .082353     18.0  .066667  .105882     18.0  .001553
GW   385    5  .066667  .105882     18.0  .066667  .129412     18.0  .001553
GW   386    5  .066667  .129412     18.0  .066667  .152941     18.0  .001553
GW   387    5  .066667  .152941     18.0  .066667  .176471     18.0  .001553
GW   388    5  .066667  .176471     18.0  .066667       .2     18.0  .001553
GW   389    5  .083333      -.2     18.0  .083333 -.176471     18.0  .001553
GW   390    5  .083333 -.176471     18.0  .083333 -.152941     18.0  .001553
GW   391    5  .083333 -.152941     18.0  .083333 -.129412     18.0  .001553
GW   392    5  .083333 -.129412     18.0  .083333 -.105882     18.0  .001553
GW   393    5  .083333 -.105882     18.0  .083333 -.082353     18.0  .001553
GW   394    5  .083333 -.082353     18.0  .083333 -.058824     18.0  .001553
GW   395    5  .083333 -.058824     18.0  .083333 -.035294     18.0  .001553
GW   396    5  .083333 -.035294     18.0  .083333 -.011765     18.0  .001553
GW   397    5  .083333 -.011765     18.0  .083333  .011765     18.0  .001553
GW   398    5  .083333  .011765     18.0  .083333  .035294     18.0  .001553
GW   399    5  .083333  .035294     18.0  .083333  .058824     18.0  .001553
GW   400    5  .083333  .058824     18.0  .083333  .082353     18.0  .001553
GW   401    5  .083333  .082353     18.0  .083333  .105882     18.0  .001553
GW   402    5  .083333  .105882     18.0  .083333  .129412     18.0  .001553
GW   403    5  .083333  .129412     18.0  .083333  .152941     18.0  .001553
GW   404    5  .083333  .152941     18.0  .083333  .176471     18.0  .001553
GW   405    5  .083333  .176471     18.0  .083333       .2     18.0  .001553
GW   406    5       .1      -.2     18.0       .1 -.176471     18.0  .001553
GW   407    5       .1 -.176471     18.0       .1 -.152941     18.0  .001553
GW   408    5       .1 -.152941     18.0       .1 -.129412     18.0  .001553
GW   409    5       .1 -.129412     18.0       .1 -.105882     18.0  .001553
GW   410    5       .1 -.105882     18.0       .1 -.082353     18.0  .001553
GW   411    5       .1 -.082353     18.0       .1 -.058824     18.0  .001553
GW   412    5       .1 -.058824     18.0       .1 -.035294     18.0  .001553
GW   413    5       .1 -.035294     18.0       .1 -.011765     18.0  .001553
GW   414    5       .1 -.011765     18.0       .1  .011765     18.0  .001553
GW   415    5       .1  .011765     18.0       .1  .035294     18.0  .001553
GW   416    5       .1  .035294     18.0       .1  .058824     18.0  .001553
GW   417    5       .1  .058824     18.0       .1  .082353     18.0  .001553
GW   418    5       .1  .082353     18.0       .1  .105882     18.0  .001553
GW   419    5       .1  .105882     18.0       .1  .129412     18.0  .001553
GW   420    5       .1  .129412     18.0       .1  .152941     18.0  .001553
GW   421    5       .1  .152941     18.0       .1  .176471     18.0  .001553
GW   422    5       .1  .176471     18.0       .1       .2     18.0  .001553
GW   423    5  .116667      -.2     18.0  .116667 -.176471     18.0  .001553
GW   424    5  .116667 -.176471     18.0  .116667 -.152941     18.0  .001553
GW   425    5  .116667 -.152941     18.0  .116667 -.129412     18.0  .001553
GW   426    5  .116667 -.129412     18.0  .116667 -.105882     18.0  .001553
GW   427    5  .116667 -.105882     18.0  .116667 -.082353     18.0  .001553
GW   428    5  .116667 -.082353     18.0  .116667 -.058824     18.0  .001553
GW   429    5  .116667 -.058824     18.0  .116667 -.035294     18.0  .001553
GW   430    5  .116667 -.035294     18.0  .116667 -.011765     18.0  .001553
GW   431    5  .116667 -.011765     18.0  .116667  .011765     18.0  .001553
GW   432    5  .116667  .011765     18.0  .116667  .035294     18.0  .001553
GW   433    5  .116667  .035294     18.0  .116667  .058824     18.0  .001553
GW   434    5  .116667  .058824     18.0  .116667  .082353     18.0  .001553
GW   435    5  .116667  .082353     18.0  .116667  .105882     18.0  .001553
GW   436    5  .116667  .105882     18.0  .116667  .129412     18.0  .001553
GW   437    5  .116667  .129412     18.0  .116667  .152941     18.0  .001553
GW   438    5  .116667  .152941     18.0  .116667  .176471     18.0  .001553
GW   439    5  .116667  .176471     18.0  .116667       .2     18.0  .001553
GW   440    5  .133333      -.2     18.0  .133333 -.176471     18.0  .001553
GW   441    5  .133333 -.176471     18.0  .133333 -.152941     18.0  .001553
GW   442    5  .133333 -.152941     18.0  .133333 -.129412     18.0  .001553
GW   443    5  .133333 -.129412     18.0  .133333 -.105882     18.0  .001553
GW   444    5  .133333 -.105882     18.0  .133333 -.082353     18.0  .001553
GW   445    5  .133333 -.082353     18.0  .133333 -.058824     18.0  .001553
GW   446    5  .133333 -.058824     18.0  .133333 -.035294     18.0  .001553
GW   447    5  .133333 -.035294     18.0  .133333 -.011765     18.0  .001553
GW   448    5  .133333 -.011765     18.0  .133333  .011765     18.0  .001553
GW   449    5  .133333  .011765     18.0  .133333  .035294     18.0  .001553
GW   450    5  .133333  .035294     18.0  .133333  .058824     18.0  .001553
GW   451    5  .133333  .058824     18.0  .133333  .082353     18.0  .001553
GW   452    5  .133333  .082353     18.0  .133333  .105882     18.0  .001553
GW   453    5  .133333  .105882     18.0  .133333  .129412     18.0  .001553
GW   454    5  .133333  .129412     18.0  .133333  .152941     18.0  .001553
GW   455    5  .133333  .152941     18.0  .133333  .176471     18.0  .001553
GW   456    5  .133333  .176471     18.0  .133333       .2     18.0  .001553
GW   457    5      .15      -.2     18.0      .15 -.176471     18.0  .001553
GW   458    5      .15 -.176471     18.0      .15 -.152941     18.0  .001553
GW   459    5      .15 -.152941     18.0      .15 -.129412     18.0  .001553
GW   460    5      .15 -.129412     18.0      .15 -.105882     18.0  .001553
GW   461    5      .15 -.105882     18.0      .15 -.082353     18.0  .001553
GW   462    5      .15 -.082353     18.0      .15 -.058824     18.0  .001553
GW   463    5      .15 -.058824     18.0      .15 -.035294     18.0  .001553
GW   464    5      .15 -.035294     18.0      .15 -.011765     18.0  .001553
GW   465    5      .15 -.011765     18.0      .15  .011765     18.0  .001553
GW   466    5      .15  .011765     18.0      .15  .035294     18.0  .001553
GW   467    5      .15  .035294     18.0      .15  .058824     18.0  .001553
GW   468    5      .15  .058824     18.0      .15  .082353     18.0  .001553
GW   469    5      .15  .082353     18.0      .15  .105882     18.0  .001553
GW   470    5      .15  .105882     18.0      .15  .129412     18.0  .001553
GW   471    5      .15  .129412     18.0      .15  .152941     18.0  .001553
GW   472    5      .15  .152941     18.0      .15  .176471     18.0  .001553
GW   473    5      .15  .176471     18.0      .15       .2     18.0  .001553
GW   474    5  .166667      -.2     18.0  .166667 -.176471     18.0  .001553
GW   475    5  .166667 -.176471     18.0  .166667 -.152941     18.0  .001553
GW   476    5  .166667 -.152941     18.0  .166667 -.129412     18.0  .001553
GW   477    5  .166667 -.129412     18.0  .166667 -.105882     18.0  .001553
GW   478    5  .166667 -.105882     18.0  .166667 -.082353     18.0  .001553
GW   479    5  .166667 -.082353     18.0  .166667 -.058824     18.0  .001553