CM Wire Antenna Fast Ground
CE
GW 1 100 0 0 25.0 500.0 0 25.0 0.02
GW 2 3 0 0 0 0 0 25.0 0.02
GW 3 3 500.0 0 25.0 500.0 0 0 0.02
GE 0
LD 0 3 1 3 510.46
GN 0 0 0 0 13 .005
EK
EX 0 1 1 0 1 0
FR 0 0 0 0 3 0
EN
