CM Biconical Antenna
CE 							
'
GW 1 10 0 0 0.0125 0.0312 0.0541 0.1145 0.0013
GW 2 10 0 0 0.0125 0.0625 0.0000 0.1145 0.0013
GW 3 10 0 0 0.0125 0.0312 -0.0541 0.1145 0.0013
GX 1 101
GW 20 1 0 0 -0.0125 0 0 0.0125 0.0013
GE 0							' End of geometry
'
EX 0 20 1 0 1 0					' Voltage source (1+j0) at wire 20 segment 1.
'
FR 0 1 0 0 1200 0					' Set design frequency (1200 MHz).
'
EN							' End of NEC input